data_cif
_audit_creation_method 'generated by iGOR'
_symmetry_space_group_name_H-M     'P 1'
_symmetry_Int_Tables_number        1
_symmetry_cell_setting             triclinic
_cell_length_a                     25.0597000
_cell_length_b                     25.0597000
_cell_length_c                     15.3097000
_cell_angle_alpha                  90.0000000
_cell_angle_beta                   90.0000000
_cell_angle_gamma                 120.0000000
loop_
_atom_site_label
_atom_site_fract_x
_atom_site_fract_y
_atom_site_fract_z
 Zn  0.885209978      0.552460015      0.187110007    
 Zn  0.129089996      0.666610003      0.312689990    
 Zn  0.447530001      0.332749993      0.187099993    
 Zn  0.333359987      0.462460011      0.312689990    
 Zn  0.667219996      0.114770003      0.187110007    
 Zn  0.537509978      0.870890021      0.312689990    
 Zn  0.114759997      0.447519988      0.187110007    
 Zn  0.870880008      0.333370000      0.312689990    
 Zn  0.552450001      0.667219996      0.187099993    
 Zn  0.666610003      0.537519991      0.312689990    
 Zn  0.332749993      0.885209978      0.187110007    
 Zn  0.462460011      0.129079998      0.312689990    
 Zn  0.114759997      0.447530001      0.812900007    
 Zn  0.870890021      0.333370000      0.687309980    
 Zn  0.552450001      0.667219996      0.812910020    
 Zn  0.666610003      0.537519991      0.687319994    
 Zn  0.332749993      0.885209978      0.812900007    
 Zn  0.462460011      0.129079998      0.687319994    
 Zn  0.885209978      0.552450001      0.812910020    
 Zn  0.129089996      0.666610003      0.687319994    
 Zn  0.447530001      0.332749993      0.812910020    
 Zn  0.333359987      0.462460011      0.687319994    
 Zn  0.667219996      0.114770003      0.812900007    
 Zn  0.537519991      0.870890021      0.687319994    
 C1  0.573819995      0.130109996      0.270110011    
 N1  0.533879995      0.150950000      0.255129993    
 N1  0.615809977      0.145219997      0.204879999    
 C2  0.551680028      0.180979997      0.175799996    
 C2  0.601580024      0.177499995      0.145199999    
 H1  0.572340012      0.104269996      0.327769995    
 H2  0.627799988      0.195620000       8.54599997E-02
 H2  0.527729988      0.202620000      0.146840006    
 C1   5.34000015E-03  0.601170003      0.255730003    
 N1   5.02699986E-02  0.649269998      0.301270008    
 N1  0.952310026      0.603420019      0.250829995    
 C2   2.41100006E-02  0.683929980      0.326620013    
 C2  0.964439988      0.656000018      0.295899987    
 H1   1.11600002E-02  0.564979970      0.226520002    
 C3  0.928210020      0.681869984      0.312689990    
 C3   4.75299992E-02  0.737709999      0.374119997    
 C4  0.951629996      0.735650003      0.360190004    
 C4   1.13000004E-02  0.763580024      0.390910000    
 H2  0.878870010      0.658770025      0.287279993    
 H2   9.68699977E-02  0.760810018      0.399529994    
 Cl  0.906679988      0.767750025      0.381020010    
 Cl   4.03600000E-02  0.830320001      0.449849993    
 C1  0.792190015      0.563350022      0.286280006    
 N1  0.743480027      0.571219981      0.267809987    
 N1  0.831219971      0.577220023      0.217409998    
 C2  0.752250016      0.591229975      0.182280004    
 C2  0.805689991      0.594879985      0.151580006    
 H1  0.799139977      0.547710001      0.349070013    
 H2  0.827210009      0.608739972       8.78399983E-02
 H2  0.720040023      0.601419985      0.149409994    
 C1  0.885590017      0.444550008      0.241950005    
 N1  0.849020004      0.382930011      0.255109996    
 N1  0.854749978      0.470589995      0.204870000    
 C2  0.791740000      0.369239986      0.224559993    
 C2  0.795229971      0.422630012      0.193959996    
 H1  0.934040010      0.470120013      0.259149998    
 H2  0.759720027      0.429800004      0.165340006    
 H2  0.752719998      0.322730005      0.226720005    
 C1  0.386209995      0.396620005      0.237639993    
 N1  0.350710005      0.400990009      0.301270008    
 N1  0.396569997      0.348890007      0.250820011    
 C2  0.337900013      0.353230000      0.357969999    
 C2  0.365830004      0.321500003      0.327239990    
 H1  0.404269993      0.427789986      0.182420000    
 C3  0.359910011      0.271340013      0.372640014    
 C3  0.304060012      0.334789991      0.434080005    
 C4  0.326070011      0.252900004      0.448760003    
 C4  0.298139989      0.284630001      0.479490012    
 H2  0.383010000      0.245089993      0.347229987    
 H2  0.280959994      0.361039996      0.459490001    
 Cl  0.318720013      0.190650001      0.505110025    
 Cl  0.256139994      0.261750013      0.573949993    
 C1  0.458719999      0.227929994      0.227170005    
 N1  0.428759992      0.172260001      0.267820001    
 N1  0.422769994      0.254009992      0.217409998    
 C2  0.370490015      0.162599996      0.284720004    
 C2  0.366840005      0.212390006      0.254020005    
 H1  0.506089985      0.249200001      0.204980001    
 C3  0.312889993      0.213870004      0.263099998    
 C3  0.320190012      0.114309996      0.324490011    
 C4  0.262580007      0.165580004      0.302870005    
 C4  0.266229987      0.115790002      0.333570004    
 H2  0.309870005      0.255050004      0.237709999    
 H2  0.323199987       7.31299967E-02  0.349880010    
 Cl  0.195629999      0.167420000      0.314139992    
 Cl  0.203810006       5.58600016E-02  0.382930011    
 C1  0.554449975      0.436760008      0.253129989    
 N1  0.617049992      0.466089994      0.255129993    
 N1  0.529399991      0.384160012      0.204879999    
 C2  0.632470012      0.429919988      0.205229998    
 C2  0.579079986      0.380019993      0.174630001    
 H1  0.527440012      0.453480005      0.286370009    
 H2  0.573010027      0.342070013      0.133670002    
 H2  0.680079997      0.442140013      0.195050001    
 C1  0.595809996      0.994639993      0.255730003    
 N1  0.598990023      0.949710011      0.301270008    
 N1  0.651090026       4.76699993E-02  0.250829995    
 C2  0.659810007      0.975880027      0.326609999    
 C2  0.691550016       3.55399996E-02  0.295879990    
 H1  0.553799987      0.988820016      0.226530001    
 C3  0.753639996       7.17699975E-02  0.312660009    
 C3  0.690180004      0.952459991      0.374100000    
 C4  0.784009993       4.83499989E-02  0.360150009    
 C4  0.752279997      0.988690019      0.390870005    
 H2  0.779879987      0.121110000      0.287250012    
 H2  0.663940012      0.903119981      0.399500012    
 Cl  0.861069977       9.33099985E-02  0.380970001    
 Cl  0.789969981      0.959630013      0.449809998    
 C1  0.765259981      0.222039998      0.262580007    
 N1  0.827700019      0.256489992      0.267830014    
 N1  0.745959997      0.168750003      0.217419997    
 C2  0.849110007      0.223010004      0.223399997    
 C2  0.799319983      0.169569999      0.192699999    
 H1  0.734239995      0.235589996      0.291269988    
 C3  0.808560014      0.127949998      0.145779997    
 C3  0.908119977      0.234819993      0.207169995    
 C4  0.867579997      0.139750004      0.129559994    
 C4  0.917370021      0.193200007      0.160260007    
 H2  0.767390013       8.37600008E-02  0.120389998    
 H2  0.949299991      0.279009998      0.232559994    
 Cl  0.879050016       8.81099999E-02   7.13400021E-02
 Cl  0.990599990      0.207839996      0.140129998    
 C1  0.444240004      0.886590004      0.229959995    
 N1  0.384160012      0.854749978      0.204879999    
 N1  0.466089994      0.849020004      0.255120009    
 C2  0.367049992      0.793500006      0.214770004    
 C2  0.416949987      0.790009975      0.245379999    
 H1  0.471729994      0.936469972      0.229890004    
 H2  0.420890003      0.749890029      0.260809988    
 H2  0.320820004      0.756889999      0.199440002    
 C1  0.991869986      0.393180013      0.245649993    
 N1  0.949699998      0.350710005      0.301270008    
 N1   4.76600006E-02  0.396560013      0.250829995    
 C2  0.980650008      0.325809985      0.344080001    
 C2   4.03200015E-02  0.353740007      0.313349992    
 H1  0.982079983      0.421270013      0.201959997    
 H2   7.78400004E-02  0.346170008      0.331519991    
 H2  0.958190024      0.290160000      0.393139988    
 C1  0.230770007      0.458719999      0.227180004    
 N1  0.168750003      0.422760010      0.217409998    
 N1  0.256489992      0.428759992      0.267809987    
 C2  0.154440001      0.366829991      0.253989995    
 C2  0.207880005      0.370480001      0.284689993    
 H1  0.256870002      0.506089985      0.204999998    
 C3  0.205870003      0.320179999      0.324449986    
 C3   9.90099981E-02  0.312869996      0.263060004    
 C4  0.150440007      0.266220003      0.333510011    
 C4   9.70000029E-02  0.262560010      0.302810013    
 H2  0.250070006      0.323199987      0.349839985    
 H2   5.48099987E-02  0.309850007      0.237670004    
 Cl  0.147949994      0.203789994      0.382840008    
 Cl   2.82199997E-02  0.195600003      0.314060003    
 C1  0.114380002      0.555429995      0.241950005    
 N1  0.145219997      0.529389977      0.204870000    
 N1  0.150950000      0.617049992      0.255109996    
 C2  0.204740003      0.577350020      0.193959996    
 C2  0.208230004      0.630739987      0.224559993    
 H1   6.59300014E-02  0.529860020      0.259149998    
 H2  0.247250006      0.677250028      0.226720005    
 H2  0.240250006      0.570179999      0.165340006    
 C1  0.597239971      0.594929993      0.267190009    
 N1  0.649259984      0.598990023      0.301270008    
 N1  0.603399992      0.651090026      0.250820011    
 C2  0.690710008      0.661339998      0.306760013    
 C2  0.662779987      0.693069994      0.276039988    
 H1  0.555419981      0.551649988      0.254449993    
 C3  0.694840014      0.756560028      0.274690002    
 C3  0.750699997      0.693099976      0.336140007    
 C4  0.754830003      0.788330019      0.304069996    
 C4  0.782760024      0.756590009      0.334800005    
 H2  0.671739995      0.782800019      0.249280006    
 H2  0.773790002      0.666859984      0.361550003    
 Cl  0.794610023      0.867110014      0.302399993    
 Cl  0.857190013      0.796010017      0.371250004    
 C1  0.540229976      0.766170025      0.251080006    
 N1  0.577210009      0.745970011      0.217409998    
 N1  0.571210027      0.827709973      0.267809987    
 C2  0.634909987      0.797760010      0.212579995    
 C2  0.631259978      0.847549975      0.243279994    
 H1  0.491389990      0.736450016      0.263260007    
 C3  0.683179975      0.905139983      0.245230004    
 C3  0.690490007      0.805580020      0.183840007    
 C4  0.738759995      0.912959993      0.216490000    
 C4  0.742410004      0.863170028      0.185780004    
 H2  0.680159986      0.946319997      0.270619988    
 H2  0.693509996      0.764410019      0.158450007    
 Cl  0.803200006      0.984420002      0.218899995    
 Cl  0.811380029      0.872870028      0.150110006    
 C1  0.442330003      0.555729985      0.229949996    
 N1  0.470580012      0.615809977      0.204870000    
 N1  0.382919997      0.533879995      0.255120009    
 C2  0.426450014      0.632920027      0.214760005    
 C2  0.373050004      0.583029985      0.245370001    
 H1  0.464729995      0.528240025      0.229890004    
 H2  0.328979999      0.579079986      0.260800004    
 H2  0.436060011      0.679149985      0.199420005    
 C1  0.403869987      0.999180019      0.279260010    
 N1  0.400990009       5.02599999E-02  0.301279992    
 N1  0.348890007      0.952300012      0.250829995    
 C2  0.340669990       3.47499996E-02  0.285849988    
 C2  0.308930010      0.975080013      0.255129993    
 H1  0.445470005      0.996169984      0.283879995    
 H2  0.260980010      0.947409987      0.236129999    
 H2  0.324620008       6.70600012E-02  0.297749996    
 C1  0.234709993      0.777939975      0.262580007    
 N1  0.254009992      0.831229985      0.217419997    
 N1  0.172270000      0.743489981      0.267820001    
 C2  0.200650007      0.830399990      0.192680001    
 C2  0.150859997      0.776960015      0.223379999    
 H1  0.265729994      0.764389992      0.291280001    
 C3   9.18399990E-02  0.765150011      0.207139999    
 C3  0.191400006      0.872020006      0.145750001    
 C4   8.25999975E-02  0.806770027      0.160219997    
 C4  0.132390007      0.860210001      0.129519999    
 H2   5.06700017E-02  0.720960021      0.232529998    
 H2  0.232580006      0.916209996      0.120360002    
 Cl   9.37000010E-03  0.792119980      0.140070006    
 Cl  0.120920002      0.911849976       7.12900013E-02
 C1  0.441049993      0.885590017      0.758059978    
 N1  0.466089994      0.849020004      0.744889975    
 N1  0.384169996      0.854749978      0.795130014    
 C2  0.422500014      0.791740000      0.775420010    
 C2  0.372599989      0.795229971      0.806029975    
 H1  0.463930011      0.934050024      0.740869999    
 H2  0.329910010      0.759710014      0.834630013    
 H2  0.429989994      0.752719998      0.773259997    
 C1  0.997680008      0.402729988      0.732800007    
 N1  0.949710011      0.350710005      0.698740005    
 N1   4.76600006E-02  0.396569997      0.749189973    
 C2  0.970600009      0.309249997      0.693279982    
 C2   3.02600004E-02  0.337179989      0.724009991    
 H1  0.996230006      0.444570005      0.745509982    
 H2   6.13700002E-02  0.319050014      0.729680002    
 H2  0.941720009      0.263029993      0.668060005    
 C1  0.225920007      0.459740013      0.748929977    
 N1  0.256480008      0.428759992      0.732200027    
 N1  0.168750003      0.422769994      0.782599986    
 C2  0.216279998      0.368719995      0.756739974    
 C2  0.162839994      0.365069985      0.787440002    
 H1  0.245049998      0.508589983      0.736739993    
 C3  0.115079999      0.309489995      0.816190004    
 C3  0.221939996      0.316790015      0.754809976    
 C4  0.120750003      0.257569999      0.814260006    
 C4  0.174190000      0.261220008      0.783559978    
 H2   7.08900020E-02  0.306479990      0.841579974    
 H2  0.266140014      0.319810003      0.729420006    
 Cl   6.14800006E-02  0.188610002      0.849940002    
 Cl  0.181209996      0.196779996      0.781159997    
 C1  0.114749998      0.560909986      0.782040000    
 N1  0.150950000      0.617049992      0.744889975    
 N1  0.145219997      0.529399991      0.795140028    
 C2  0.207589999      0.621259987      0.733879983    
 C2  0.204099998      0.567870021      0.764479995    
 H1   6.68300018E-02  0.543200016      0.799329996    
 H2  0.239199996      0.554650009      0.766569972    
 H2  0.246199995      0.661719978      0.705190003    
 C1  0.597239971      0.594929993      0.732819974    
 N1  0.649259984      0.598990023      0.698729992    
 N1  0.603399992      0.651090026      0.749180019    
 C2  0.690710008      0.661339998      0.693229973    
 C2  0.662779987      0.693069994      0.723959982    
 H1  0.555419981      0.551649988      0.745570004    
 H2  0.680899978      0.742320001      0.729600012    
 H2  0.736919999      0.678680003      0.667980015    
 C1  0.545199990      0.776610017      0.783609986    
 N1  0.571219981      0.827709973      0.732200027    
 N1  0.577210009      0.745959997      0.782609999    
 C2  0.622669995      0.829460025      0.696630001    
 C2  0.626320004      0.779670000      0.727339983    
 H1  0.503480017      0.761910021      0.821290016    
 H2  0.660239995      0.765950024      0.713789999    
 H2  0.652920008      0.865800023      0.652220011    
 C1  0.439060003      0.553830028      0.782050014    
 N1  0.382919997      0.533890009      0.744889975    
 N1  0.470580012      0.615809977      0.795140028    
 C2  0.378719985      0.586319983      0.733839989    
 C2  0.432110012      0.636219978      0.764450014    
 H1  0.456759989      0.523609996      0.799359977    
 H2  0.445340008      0.684539974      0.766520023    
 H2  0.338270009      0.584479988      0.705139995    
 C1  0.401289999       8.10000021E-03  0.754360020    
 N1  0.400990009       5.02599999E-02  0.698729992    
 N1  0.348890007      0.952300012      0.749180019    
 C2  0.345140010       1.93000007E-02  0.655910015    
 C2  0.313410014      0.959640026      0.686640024    
 H1  0.439170003       1.78999994E-02  0.798060000    
 C3  0.255860001      0.919040024      0.653900027    
 C3  0.319319993       3.83500010E-02  0.592459977    
 C4  0.230039999      0.938080013      0.590449989    
 C4  0.261770010      0.997739971      0.559719980    
 H2  0.229619995      0.869690001      0.679310024    
 H2  0.345560014       8.76900032E-02  0.567049980    
 Cl  0.158629999      0.887690008      0.549820006    
 Cl  0.229729995       2.13699993E-02  0.480989993    
 C1  0.234709993      0.777939975      0.737429976    
 N1  0.172270000      0.743489981      0.732179999    
 N1  0.254009992      0.831229985      0.782589972    
 C2  0.150859997      0.776970029      0.776610017    
 C2  0.200650007      0.830410004      0.807309985    
 H1  0.265729994      0.764389992      0.708739996    
 C3  0.191410005      0.872030020      0.854229987    
 C3   9.18499976E-02  0.765160024      0.792840004    
 C4  0.132390007      0.860230029      0.870450020    
 C4   8.25999975E-02  0.806779981      0.839749992    
 H2  0.232580006      0.916220009      0.879620016    
 H2   5.06700017E-02  0.720969975      0.767449975    
 Cl  0.120920002      0.911870003      0.928669989    
 Cl   9.37000010E-03  0.792140007      0.859879971    
 C1  0.555729985      0.113389999      0.770049989    
 N1  0.615809977      0.145219997      0.795130014    
 N1  0.533879995      0.150950000      0.744880021    
 C2  0.632920027      0.206469998      0.785229981    
 C2  0.583019972      0.209959999      0.754630029    
 H1  0.528240025       6.35000020E-02  0.770120025    
 H2  0.579079986      0.250079989      0.739189982    
 H2  0.679149985      0.243090004      0.800559998    
 C1  0.999189973      0.595309973      0.720749974    
 N1   5.02699986E-02  0.649269998      0.698750019    
 N1  0.952310026      0.603410006      0.749189973    
 C2   3.47599983E-02  0.694079995      0.714190006    
 C2  0.975099981      0.666149974      0.744910002    
 H1  0.996169984      0.550689995      0.716120005    
 C3  0.948599994      0.701290011      0.765370011    
 C3   6.79100007E-02  0.757130027      0.703930020    
 C4  0.981739998      0.764339983      0.755110025    
 C4   4.14099991E-02  0.792270005      0.724380016    
 H2  0.899259984      0.678189993      0.790780008    
 H2  0.117250003      0.780229986      0.678520024    
 Cl  0.948859990      0.807940006      0.780489981    
 Cl   8.25399980E-02  0.870509982      0.711650014    
 C1  0.777939975      0.543219984      0.737429976    
 N1  0.831229985      0.577210009      0.782609999    
 N1  0.743489981      0.571219981      0.732200027    
 C2  0.830399990      0.629740000      0.807359993    
 C2  0.776960015      0.626089990      0.776660025    
 H1  0.764400005      0.498670012      0.708720028    
 H2  0.760510027      0.658529997      0.783309996    
 H2  0.867680013      0.665849984      0.844879985    
 C1  0.886590004      0.442339987      0.770049989    
 N1  0.854759991      0.470580012      0.795140028    
 N1  0.849030018      0.382930011      0.744889975    
 C2  0.793510020      0.426440001      0.785260022    
 C2  0.790019989      0.373059988      0.754649997    
 H1  0.936469972      0.464740008      0.770099998    
 H2  0.749890029      0.328979999      0.739220023    
 H2  0.756889999      0.436049998      0.800599992    
 C1  0.404670000      0.403869987      0.720749974    
 N1  0.350710005      0.400990009      0.698740005    
 N1  0.396569997      0.348890007      0.749180019    
 C2  0.305909991      0.340660006      0.714150012    
 C2  0.333840013      0.308930010      0.744870007    
 H1  0.449290007      0.445470005      0.716149986    
 H2  0.313560009      0.260980010      0.763859987    
 H2  0.257550001      0.324620008      0.702250004    
 C1  0.458719999      0.227929994      0.772840023    
 N1  0.422769994      0.254009992      0.782599986    
 N1  0.428759992      0.172260001      0.732190013    
 C2  0.366840005      0.212390006      0.745989978    
 C2  0.370490015      0.162599996      0.715290010    
 H1  0.506089985      0.249200001      0.795029998    
 C3  0.320190012      0.114309996      0.675520003    
 C3  0.312889993      0.213870004      0.736909986    
 C4  0.266229987      0.115790002      0.666440010    
 C4  0.262580007      0.165580004      0.697139978    
 H2  0.323199987       7.31299967E-02  0.650129974    
 H2  0.309870005      0.255050004      0.762300014    
 Cl  0.203810006       5.58600016E-02  0.617079973    
 Cl  0.195629999      0.167420000      0.685869992    
 C1  0.554729998      0.431679994      0.737280011    
 N1  0.529399991      0.384169996      0.795140028    
 N1  0.617049992      0.466089994      0.744889975    
 C2  0.578580022      0.388830006      0.842040002    
 C2  0.631969988      0.438730001      0.811439991    
 H1  0.528140008      0.441100001      0.690219998    
 H2  0.679260015      0.456569999      0.832249999    
 H2  0.572200000      0.356500000      0.893630028    
 C1  0.596099973       7.90000020E-04  0.720749974    
 N1  0.598990023      0.949710011      0.698740005    
 N1  0.651090026       4.76699993E-02  0.749180019    
 C2  0.659309983      0.965229988      0.714160025    
 C2  0.691049993       2.49000005E-02  0.744889975    
 H1  0.554499984       3.80000006E-03  0.716130018    
 C3  0.752680004       5.13999984E-02  0.765320003    
 C3  0.689230025      0.932089984      0.703890026    
 C4  0.782599986       1.82700008E-02  0.755050004    
 C4  0.750869989      0.958599985      0.724330008    
 H2  0.778919995      0.100749999      0.790730000    
 H2  0.662989974      0.882749975      0.678480029    
 Cl  0.859080017       5.11600003E-02  0.780409992    
 Cl  0.787989974      0.917479992      0.711570024    
 C1  0.781880021      0.230759993      0.792590022    
 N1  0.745959997      0.168750003      0.782589972    
 N1  0.827709973      0.256489992      0.732179999    
 C2  0.770529985      0.154469997      0.711719990    
 C2  0.820320010      0.207910001      0.681020021    
 H1  0.774760008      0.256839991      0.843209982    
 C3  0.853039980      0.205919996      0.609969974    
 C3  0.753480017       9.90599990E-02  0.671370029    
 C4  0.835990012      0.150519997      0.569620013    
 C4  0.786199987       9.70799997E-02  0.600319982    
 H2  0.894219995      0.250120014      0.584580004    
 H2  0.712300003       5.48699982E-02  0.696759999    
 Cl  0.876600027      0.148049995      0.481449991    
 Cl  0.765049994       2.83199996E-02  0.550239980    
 C1  0.457580000      0.350059986       9.99999975E-06
 N1  0.422930002      0.335170001      0.926090002    
 N1  0.422930002      0.335170001       7.39199966E-02
 C2  0.362899989      0.309379995      0.954980016    
 C2  0.362899989      0.309379995       4.50300016E-02
 H1  0.507380009      0.371450007       9.99999975E-06
 C3  0.308090001      0.285840005       9.00299996E-02
 C3  0.308090001      0.285840005      0.909979999    
 C4  0.253280014      0.262290001       4.50300016E-02
 C4  0.253280014      0.262290001      0.954980016    
 H2  0.308090001      0.285840005      0.164489999    
 H2  0.308090001      0.285840005      0.835520029    
 Cl  0.185269997      0.233080000      0.100869998    
 Cl  0.185269997      0.233080000      0.899140000    
 C1  0.642289996       9.94300023E-02   0.00000000    
 N1  0.664810002       8.77500027E-02  0.926090002    
 N1  0.664810002       8.77500027E-02   7.39199966E-02
 C2  0.703819990       6.75100014E-02  0.954980016    
 C2  0.703819990       6.75100014E-02   4.50300016E-02
 H1  0.609929979      0.116219997       0.00000000    
 C3  0.739430010       4.90400009E-02   9.00299996E-02
 C3  0.739430010       4.90400009E-02  0.909979999    
 C4  0.775049984       3.05599999E-02   4.50300016E-02
 C4  0.775049984       3.05599999E-02  0.954980016    
 H2  0.739430010       4.90400009E-02  0.164489999    
 H2  0.739430010       4.90400009E-02  0.835520029    
 Cl  0.819249988       7.63999997E-03  0.100869998    
 Cl  0.819249988       7.63999997E-03  0.899140000    
 C1  0.909410000      0.545639992       9.99999975E-06
 N1  0.912230015      0.577049971      0.926090002    
 N1  0.912230015      0.577049971       7.39199966E-02
 C2  0.917129993      0.631489992      0.954980016    
 C2  0.917129993      0.631489992       4.50300016E-02
 H1  0.905350029      0.500469983       9.99999975E-06
 C3  0.921599984      0.681190014       9.00299996E-02
 C3  0.921599984      0.681180000      0.909979999    
 C4  0.926060021      0.730880022       4.50199991E-02
 C4  0.926060021      0.730880022      0.954980016    
 H2  0.921599984      0.681190014      0.164489999    
 H2  0.921599984      0.681180000      0.835510015    
 Cl  0.931609988      0.792559981      0.100860000    
 Cl  0.931609988      0.792550027      0.899129987    
 C1  0.542859972      0.642289996       9.99999975E-06
 N1  0.577049971      0.664799988      0.926090002    
 N1  0.577049971      0.664799988       7.39199966E-02
 C2  0.636300027      0.703790009      0.954980016    
 C2  0.636300027      0.703790009       4.50300016E-02
 H1  0.493699998      0.609939992       9.99999975E-06
 C3  0.690389991      0.739400029       9.00299996E-02
 C3  0.690389991      0.739400029      0.909979999    
 C4  0.744490027      0.774999976       4.50300016E-02
 C4  0.744490027      0.774999976      0.954980016    
 H2  0.690389991      0.739400029      0.164489999    
 H2  0.690389991      0.739400029      0.835520029    
 Cl  0.811619997      0.819180012      0.100869998    
 Cl  0.811619997      0.819180012      0.899140000    
 C1  0.350059986      0.892470002       0.00000000    
 N1  0.335159987      0.912230015      0.926090002    
 N1  0.335159987      0.912230015       7.39199966E-02
 C2  0.309359998      0.946460009      0.954980016    
 C2  0.309359998      0.946460009       4.50300016E-02
 H1  0.371470004      0.864080012       0.00000000    
 C3  0.285800010      0.977710009       9.00299996E-02
 C3  0.285800010      0.977710009      0.909979999    
 C4  0.262239993       8.96000024E-03   4.50300016E-02
 C4  0.262239993       8.96000024E-03  0.954980016    
 H2  0.285800010      0.977710009      0.164489999    
 H2  0.285800010      0.977710009      0.835520029    
 Cl  0.233009994       4.77400012E-02  0.100869998    
 Cl  0.233009994       4.77400012E-02  0.899140000    
 C1  0.114220001      0.455659986       9.99999975E-06
 N1   8.77399966E-02  0.422919989      0.926090002    
 N1   8.77399966E-02  0.422919989       7.39199966E-02
 C2   4.18599993E-02  0.366189986      0.954980016    
 C2   4.18599993E-02  0.366180003       4.50199991E-02
 H1  0.152290002      0.502730012       9.99999975E-06
 H2   1.25799999E-02  0.329979986       9.02900025E-02
 H2   1.25799999E-02  0.329979986      0.909709990    
 C1  0.364140004      0.487159997      0.500010014    
 N1  0.335110009      0.489179999      0.573920012    
 N1  0.335110009      0.489179999      0.426090002    
 C2  0.284790009      0.492700011      0.545029998    
 C2  0.284790009      0.492700011      0.454979986    
 H1  0.405889988      0.484239995      0.500010014    
 H2  0.252680004      0.494940013      0.409720004    
 H2  0.252680004      0.494940013      0.590290010    
 C1  0.521740019      0.879970014      0.500010014    
 N1  0.510789990      0.845920026      0.573920012    
 N1  0.510779977      0.845920026      0.426090002    
 C2  0.491800010      0.786920011      0.545029998    
 C2  0.491789997      0.786920011      0.454979986    
 H1  0.537490010      0.928910017      0.500010014    
 H2  0.479680002      0.749270022      0.409720004    
 H2  0.479680002      0.749270022      0.590290010    
 C1  0.156110004      0.695919991      0.500010014    
 N1  0.154060006      0.664849997      0.573920012    
 N1  0.154060006      0.664849997      0.426090002    
 C2  0.150500000      0.611000001      0.545029998    
 C2  0.150500000      0.611000001      0.454979986    
 H1  0.159060001      0.740599990      0.500000000    
 H2  0.148230001      0.576629996      0.409720004    
 H2  0.148230001      0.576629996      0.590290010    
 C1  0.657840014      0.536759973      0.500010014    
 N1  0.664870024      0.510800004      0.573920012    
 N1  0.664870024      0.510800004      0.426090002    
 C2  0.677060008      0.465810001      0.545029998    
 C2  0.677060008      0.465810001      0.454979986    
 H1  0.647729993      0.574090004      0.500000000    
 H2  0.684840024      0.437099993      0.409720004    
 H2  0.684840024      0.437099993      0.590290010    
 C1  0.487159997      0.122989997      0.500010014    
 N1  0.489179999      0.154060006      0.573920012    
 N1  0.489179999      0.154060006      0.426090002    
 C2  0.492700011      0.207890004      0.545029998    
 C2  0.492700011      0.207890004      0.454979986    
 H1  0.484239995       7.83300027E-02  0.500010014    
 H2  0.494940013      0.242239997      0.409720004    
 H2  0.494940013      0.242239997      0.590290010    
 C1  0.878899992      0.342130005      0.500000000    
 N1  0.845920026      0.335139990      0.573920012    
 N1  0.845920026      0.335139990      0.426090002    
 C2  0.788760006      0.323009998      0.545029998    
 C2  0.788760006      0.323009998      0.454979986    
 H1  0.926320016      0.352200001      0.500000000    
 H2  0.752279997      0.315270007      0.409720004    
 H2  0.752279997      0.315270007      0.590290010    
