data_block_1
_audit_creation_date         'Tue Mar 21 15:42:35 2017'
_audit_creation_method       'generated by GDIS v0.90'


_cell_length_a             16.0490
_cell_length_b             16.0490
_cell_length_c              9.2270
_cell_angle_alpha          90.00
_cell_angle_beta           90.00
_cell_angle_gamma          90.00


_symmetry_space_group_name_H-M   'P 1'
_symmetry_Int_Tables_number       1


loop_
_atom_site_label
_atom_site_fract_x
_atom_site_fract_y
_atom_site_fract_z
Zn    0.1805    0.1805    0.0000
Zn    0.6805    0.6805    0.4999
Zn    0.3250    0.3250    0.4999
Zn    0.8250    0.8250    1.0000
Zn    0.3250    0.6805    0.4999
Zn    0.8250    0.1805    0.0000
Zn    0.6805    0.3250    0.4999
Zn    0.1805    0.8250    1.0000
 C    0.2187    0.0027    0.9616
 N    0.2126    0.9322    0.0427
 N    0.2126    0.0733    0.0427
 C    0.2021    0.9598    0.1833
 C    0.2021    0.0457    0.1833
 C    0.2304    0.0027    0.8057
 H    0.1953    0.0889    0.2729
 H    0.1953    0.9166    0.2729
 O    0.2360    0.9397    0.7299
 H    0.2341    0.0659    0.7558
 C    0.7187    0.5028    0.4617
 N    0.7126    0.4322    0.5428
 N    0.7126    0.5732    0.5428
 C    0.7020    0.4598    0.6832
 C    0.7020    0.5457    0.6832
 C    0.7303    0.5028    0.3057
 H    0.6954    0.5889    0.7728
 H    0.6954    0.4166    0.7728
 O    0.7361    0.4398    0.2300
 H    0.7341    0.5658    0.2559
 C    0.7868    0.0027    0.9616
 N    0.7929    0.0733    0.0427
 N    0.7929    0.9322    0.0427
 C    0.8034    0.0457    0.1833
 C    0.8034    0.9598    0.1833
 C    0.7751    0.0027    0.8057
 H    0.8101    0.9166    0.2729
 H    0.8101    0.0889    0.2729
 O    0.7695    0.0657    0.7299
 H    0.7714    0.9396    0.7558
 S    0.0046    0.4944    0.4562
 N    0.2929    0.5732    0.5428
 N    0.2929    0.4322    0.5428
 C    0.3034    0.5457    0.6832
 C    0.3034    0.4598    0.6832
 C    0.2752    0.5028    0.3057
 H    0.3101    0.4166    0.7728
 H    0.3101    0.5889    0.7728
 O    0.2695    0.5657    0.2300
 H    0.2714    0.4397    0.2559
 C    0.0027    0.1692    0.0741
 N    0.9322    0.2126    0.0427
 N    0.0733    0.2126    0.0427
 C    0.9598    0.2878    0.9883
 C    0.0457    0.2878    0.9883
 C    0.0027    0.0857    0.1345
 H    0.0889    0.3358    0.9536
 H    0.9166    0.3358    0.9536
 O    0.9397    0.0452    0.1639
 S    0.5041    0.5075    0.0238
 C    0.5028    0.6692    0.5741
 N    0.4322    0.7126    0.5428
 N    0.5732    0.7126    0.5428
 C    0.4598    0.7878    0.4883
 C    0.5457    0.7878    0.4883
 C    0.5028    0.5857    0.6346
 H    0.5889    0.8358    0.4536
 H    0.4166    0.8358    0.4536
 O    0.4398    0.5451    0.6638
 H    0.5659    0.5590    0.6538
 C    0.0027    0.8363    0.0741
 N    0.0733    0.7929    0.0427
 N    0.9322    0.7929    0.0427
 C    0.0457    0.7177    0.9883
 C    0.9598    0.7177    0.9883
 C    0.0027    0.9197    0.1345
 H    0.9166    0.6697    0.9536
 H    0.0889    0.6697    0.9536
 O    0.0657    0.9603    0.1639
 H    0.9396    0.9464    0.1538
 C    0.5028    0.3363    0.5741
 N    0.5732    0.2929    0.5428
 N    0.4322    0.2929    0.5428
 C    0.5457    0.2177    0.4883
 C    0.4598    0.2177    0.4883
 C    0.5028    0.4198    0.6346
 H    0.4166    0.1697    0.4536
 H    0.5889    0.1697    0.4536
 O    0.5657    0.4603    0.6638
 H    0.4397    0.4464    0.6538
 C    0.2913    0.2337    0.2329
 N    0.3049    0.3049    0.3092
 N    0.2472    0.2472    0.1092
 C    0.2672    0.3670    0.2291
 C    0.2320    0.3318    0.1073
 C    0.3206    0.1523    0.2784
 H    0.1975    0.3609    0.0199
 H    0.2681    0.4315    0.2641
 O    0.3606    0.1386    0.3898
 H    0.3041    0.1004    0.2035
 C    0.7913    0.7337    0.7330
 N    0.8049    0.8049    0.8091
 N    0.7471    0.7471    0.6093
 C    0.7672    0.8670    0.7291
 C    0.7320    0.8318    0.6073
 C    0.8206    0.6523    0.7785
 H    0.6975    0.8609    0.5199
 H    0.7681    0.9315    0.7641
 O    0.8606    0.6385    0.8899
 H    0.8041    0.6004    0.7036
 C    0.2718    0.2142    0.7330
 N    0.2583    0.2583    0.6093
 N    0.2006    0.2006    0.8091
 C    0.1737    0.2735    0.6073
 C    0.1385    0.2383    0.7291
 C    0.3532    0.1849    0.7785
 H    0.0740    0.2375    0.7641
 H    0.1446    0.3080    0.5199
 O    0.4185    0.1965    0.7114
 H    0.3534    0.1497    0.8825
 C    0.7718    0.7142    0.2329
 N    0.7583    0.7583    0.1092
 N    0.7005    0.7005    0.3092
 C    0.6737    0.7734    0.1073
 C    0.6385    0.7382    0.2291
 C    0.8532    0.6849    0.2785
 H    0.5740    0.7374    0.2641
 H    0.6446    0.8080    0.0199
 O    0.9185    0.6964    0.2113
 H    0.8533    0.6496    0.3825
 C    0.2718    0.7913    0.7330
 N    0.2006    0.8049    0.8091
 N    0.2583    0.7471    0.6093
 C    0.1385    0.7672    0.7291
 C    0.1737    0.7320    0.6073
 C    0.3532    0.8206    0.7785
 H    0.1446    0.6975    0.5199
 H    0.0740    0.7680    0.7641
 O    0.3669    0.8606    0.8899
 H    0.4051    0.8041    0.7036
 C    0.7718    0.2913    0.2329
 N    0.7005    0.3049    0.3092
 N    0.7583    0.2472    0.1092
 C    0.6385    0.2672    0.2291
Xe    0.5064    0.0056    0.5595
 C    0.8532    0.3206    0.2785
 H    0.6446    0.1975    0.0199
 H    0.5740    0.2681    0.2641
 O    0.8669    0.3606    0.3898
 H    0.9050    0.3041    0.2035
 C    0.7913    0.2718    0.7330
 N    0.7471    0.2583    0.6093
 N    0.8049    0.2006    0.8091
 C    0.7320    0.1737    0.6073
 C    0.7672    0.1385    0.7291
 C    0.8206    0.3532    0.7785
 H    0.7681    0.0740    0.7641
 H    0.6975    0.1446    0.5199
 O    0.8090    0.4185    0.7114
 H    0.8558    0.3534    0.8825
 C    0.2913    0.7718    0.2329
 N    0.2472    0.7583    0.1092
 N    0.3049    0.7005    0.3092
 C    0.2320    0.6737    0.1073
 C    0.2672    0.6385    0.2291
 C    0.3206    0.8532    0.2784
 H    0.2681    0.5740    0.2641
 H    0.1975    0.6446    0.0199
 O    0.3091    0.9185    0.2113
 H    0.3558    0.8533    0.3825


