data_cif

_audit_creation_method             'generated by GULP'

_symmetry_space_group_name_H-M     'P 1'
_symmetry_Int_Tables_number        1
_symmetry_cell_setting             triclinic

_cell_length_a                       12.2793
_cell_length_b                       12.2793
_cell_length_c                       10.1990
_cell_angle_alpha                   90.0000
_cell_angle_beta                    90.0000
_cell_angle_gamma                  120.0000

loop_
_atom_site_label
_atom_site_fract_x
_atom_site_fract_y
_atom_site_fract_z
_atom_site_occupancy
  Si          0.07935      0.41411      0.37500  1.0000
  Si          0.07935      0.41411      0.87500  1.0000
  Si          0.91814      0.58413      0.12500  1.0000
  Si          0.91814      0.58413      0.62500  1.0000
  Si          0.58376      0.66474      0.37500  1.0000
  Si          0.58376      0.66474      0.87500  1.0000
  Si          0.33313      0.91852      0.37500  1.0000
  Si          0.33313      0.91852      0.87500  1.0000
  Si          0.66436      0.07972      0.12500  1.0000
  Si          0.66436      0.07972      0.62500  1.0000
  Si          0.41374      0.33351      0.12500  1.0000
  Si          0.41374      0.33351      0.62500  1.0000
  Si          0.66436      0.58413      0.12500  1.0000
  Si          0.66436      0.58413      0.62500  1.0000
  Si          0.91814      0.33351      0.12500  1.0000
  Si          0.91814      0.33351      0.62500  1.0000
  Si          0.41374      0.07972      0.12500  1.0000
  Si          0.41374      0.07972      0.62500  1.0000
  Si          0.58376      0.91852      0.37500  1.0000
  Si          0.58376      0.91852      0.87500  1.0000
  Si          0.07935      0.66474      0.37500  1.0000
  Si          0.07935      0.66474      0.87500  1.0000
  Si          0.33313      0.41411      0.37500  1.0000
  Si          0.33313      0.41411      0.87500  1.0000
  O           0.97446      0.33489      0.26689  1.0000
  O           0.97446      0.33489      0.76689  1.0000
  O           0.02303      0.66335      0.01689  1.0000
  O           0.02303      0.66335      0.51689  1.0000
  O           0.66298      0.63907      0.26689  1.0000
  O           0.66298      0.63907      0.76689  1.0000
  O           0.35880      0.02341      0.26689  1.0000
  O           0.35880      0.02341      0.76689  1.0000
  O           0.63869      0.97483      0.01689  1.0000
  O           0.63869      0.97483      0.51689  1.0000
  O           0.33451      0.35918      0.01689  1.0000
  O           0.33451      0.35918      0.51689  1.0000
  O           0.97446      0.63907      0.26689  1.0000
  O           0.97446      0.63907      0.76689  1.0000
  O           0.02303      0.35918      0.01689  1.0000
  O           0.02303      0.35918      0.51689  1.0000
  O           0.35880      0.33489      0.26689  1.0000
  O           0.35880      0.33489      0.76689  1.0000
  O           0.66298      0.02341      0.26689  1.0000
  O           0.66298      0.02341      0.76689  1.0000
  O           0.33451      0.97483      0.01689  1.0000
  O           0.33451      0.97483      0.51689  1.0000
  O           0.63869      0.66335      0.01689  1.0000
  O           0.63869      0.66335      0.51689  1.0000
  O           0.19868      0.39899      0.34915  1.0000
  O           0.19868      0.39899      0.84915  1.0000
  O           0.79881      0.59926      0.09915  1.0000
  O           0.79881      0.59926      0.59915  1.0000
  O           0.59888      0.79919      0.34915  1.0000
  O           0.59888      0.79919      0.84915  1.0000
  O           0.19868      0.79919      0.34915  1.0000
  O           0.19868      0.79919      0.84915  1.0000
  O           0.79881      0.19905      0.09915  1.0000
  O           0.79881      0.19905      0.59915  1.0000
  O           0.39861      0.19905      0.09915  1.0000
  O           0.39861      0.19905      0.59915  1.0000
  O           0.12216      0.56083      0.36493  1.0000
  O           0.12216      0.56083      0.86493  1.0000
  O           0.87534      0.43742      0.11493  1.0000
  O           0.87534      0.43742      0.61493  1.0000
  O           0.43704      0.56083      0.36493  1.0000
  O           0.43704      0.56083      0.86493  1.0000
  O           0.43704      0.87571      0.36493  1.0000
  O           0.43704      0.87571      0.86493  1.0000
  O           0.56045      0.12253      0.11493  1.0000
  O           0.56045      0.12253      0.61493  1.0000
  O           0.56045      0.43742      0.11493  1.0000
  O           0.56045      0.43742      0.61493  1.0000
