data_cif
_audit_creation_method 'generated by iGOR'
_symmetry_space_group_name_H-M     'P 1'
_symmetry_Int_Tables_number        1
_symmetry_cell_setting             triclinic
_cell_length_a                     24.9822998
_cell_length_b                     24.9822998
_cell_length_c                     17.7807999
_cell_angle_alpha                  90.0000000
_cell_angle_beta                   90.0000000
_cell_angle_gamma                 120.0000000
loop_
_atom_site_label
_atom_site_fract_x
_atom_site_fract_y
_atom_site_fract_z
 Zn  0.439359993      0.106430002       8.94799978E-02
 Zn  0.560639977      0.893570006      0.589479983    
 Zn  0.893570006      0.332929999       8.94799978E-02
 Zn  0.667069972      0.560639977       8.94799978E-02
 Zn  0.332929999      0.439359993      0.589479983    
 Zn  0.106430002      0.667069972      0.589479983    
 Zn  0.332929999      0.893570006      0.910520017    
 Zn  0.560639977      0.667069972      0.910520017    
 Zn  0.106430002      0.439359993      0.910520017    
 Zn  0.893570006      0.560639977      0.410519987    
 Zn  0.439359993      0.332929999      0.410519987    
 Zn  0.667069972      0.106430002      0.410519987    
 Zn  0.560639977      0.893570006      0.910520017    
 Zn  0.439359993      0.106430002      0.410519987    
 Zn  0.106430002      0.667069972      0.910520017    
 Zn  0.332929999      0.439359993      0.910520017    
 Zn  0.667069972      0.560639977      0.410519987    
 Zn  0.893570006      0.332929999      0.410519987    
 Zn  0.667069972      0.106430002       8.94799978E-02
 Zn  0.439359993      0.332929999       8.94799978E-02
 Zn  0.893570006      0.560639977       8.94799978E-02
 Zn  0.106430002      0.439359993      0.589479983    
 Zn  0.560639977      0.667069972      0.589479983    
 Zn  0.332929999      0.893570006      0.589479983    
 C1  0.551460028      0.102920003       9.35899988E-02
 N1  0.609319985      0.128049999       6.41800016E-02
 N1  0.518729985      0.128049999       6.41800016E-02
 C2  0.613390028      0.171590000       1.32200001E-02
 C2  0.558210015      0.171590000       1.32200001E-02
 C3  0.526639998       5.32799996E-02  0.151679993    
 H1  0.544359982      0.199379995      0.980690002    
 H1  0.655019999      0.199379995      0.980690002    
 H2  0.503090024       6.19000010E-03  0.122929998    
 H2  0.566179991       5.78400008E-02  0.188280001    
 H2  0.491659999       5.78400008E-02  0.188280001    
 C1  0.431789994      0.863579988      0.605359972    
 N1  0.390679985      0.871949971      0.564180017    
 N1  0.481269985      0.871949971      0.564180017    
 C2  0.415639997      0.886449993      0.492810011    
 C2  0.470820010      0.886449993      0.492810011    
 C3  0.423530012      0.847060025      0.686710000    
 H1  0.503180027      0.895709991      0.447270006    
 H1  0.392520010      0.895709991      0.447270006    
 H2  0.445529997      0.891070008      0.721970022    
 H2  0.372110009      0.818729997      0.700209975    
 H2  0.446619987      0.818729997      0.700209975    
 C1  0.897080004      0.448540002       9.35899988E-02
 N1  0.871949971      0.481269985       6.41800016E-02
 N1  0.871949971      0.390679985       6.41800016E-02
 C2  0.828410029      0.441790015       1.32200001E-02
 C2  0.828410029      0.386610001       1.32200001E-02
 C3  0.946720004      0.473360002      0.151679993    
 H1  0.800620019      0.344980001      0.980690002    
 H1  0.800620019      0.455639988      0.980690002    
 H2  0.993809998      0.496910006      0.122929998    
 H2  0.942160010      0.508340001      0.188280001    
 H2  0.942160010      0.433820009      0.188280001    
 C1  0.548759997      0.451240003       8.46699998E-02
 N1  0.518729985      0.390679985       6.41800016E-02
 N1  0.609319985      0.481269985       6.41800016E-02
 C2  0.562879980      0.381940007       2.86699999E-02
 C2  0.618059993      0.437119991       2.86699999E-02
 C3  0.518610001      0.481389999      0.125149995    
 H1  0.662679970      0.447970003       6.00000005E-03
 H1  0.552030027      0.337320000       6.00000005E-03
 H2  0.498919994      0.501079977       8.25499967E-02
 H2  0.479660004      0.445820004      0.161939994    
 H2  0.554180026      0.520340025      0.161939994    
 C1  0.453410000      0.546589971      0.563350022    
 N1  0.481269985      0.609319985      0.564180017    
 N1  0.390679985      0.518729985      0.564180017    
 C2  0.433360010      0.621819973      0.565609992    
 C2  0.378179997      0.566640019      0.565609992    
 H1  0.478460014      0.521539986      0.562170029    
 H2  0.331169993      0.558170021      0.566519976    
 H2  0.441830009      0.668829978      0.566519976    
 C1  0.102920003      0.551460028      0.593590021    
 N1  0.128049999      0.518729985      0.564180017    
 N1  0.128049999      0.609319985      0.564180017    
 C2  0.171590000      0.558210015      0.513220012    
 C2  0.171590000      0.613390028      0.513220012    
 H1   6.67899996E-02  0.533399999      0.635869980    
 H2  0.199379995      0.655019999      0.480690002    
 H2  0.199379995      0.544359982      0.480690002    
 C1  0.444979995      0.889970005      0.899500012    
 N1  0.481269985      0.871949971      0.935819983    
 N1  0.390679985      0.871949971      0.935819983    
 C2  0.447959989      0.840730011      0.998759985    
 C2  0.392780006      0.840730011      0.998759985    
 H1  0.457940012      0.915870011      0.847280025    
 H2  0.355069995      0.820810020       3.89299989E-02
 H2  0.465730011      0.820810020       3.89299989E-02
 C1  0.448540002      0.551460028      0.906409979    
 N1  0.390679985      0.518729985      0.935819983    
 N1  0.481269985      0.609319985      0.935819983    
 C2  0.386610001      0.558210015      0.986779988    
 C2  0.441790015      0.613390028      0.986779988    
 C3  0.473360002      0.526639998      0.848320007    
 H1  0.455639988      0.655019999       1.93099994E-02
 H1  0.344980001      0.544359982       1.93099994E-02
 H2  0.496910006      0.503090024      0.877070010    
 H2  0.433820009      0.491659999      0.811720014    
 H2  0.508340001      0.566179991      0.811720014    
 C1   9.31899995E-02  0.546589971      0.936649978    
 N1  0.128049999      0.609319985      0.935819983    
 N1  0.128049999      0.518729985      0.935819983    
 C2  0.188449994      0.621819973      0.934390008    
 C2  0.188449994      0.566640019      0.934390008    
 H1   4.30699997E-02  0.521539986      0.937829971    
 H2  0.226999998      0.558170021      0.933480024    
 H2  0.226999998      0.668829978      0.933480024    
 C1  0.881630003      0.440809995      0.395060003    
 N1  0.871949971      0.390679985      0.435820013    
 N1  0.871949971      0.481269985      0.435820013    
 C2  0.855180025      0.400000006      0.506449997    
 C2  0.855180025      0.455179989      0.506449997    
 C3  0.900740027      0.450370014      0.314559996    
 H1  0.844479978      0.477569997      0.551519990    
 H1  0.844479978      0.366910011      0.551519990    
 H2  0.953339994      0.476669997      0.310799986    
 H2  0.881749988      0.403620005      0.285640001    
 H2  0.881749988      0.478139997      0.285640001    
 C1  0.546589971      0.453410000      0.436650008    
 N1  0.609319985      0.481269985      0.435820013    
 N1  0.518729985      0.390679985      0.435820013    
 C2  0.621819973      0.433360010      0.434390008    
 C2  0.566640019      0.378179997      0.434390008    
 H1  0.521539986      0.478460014      0.437830001    
 H2  0.558170021      0.331169993      0.433479995    
 H2  0.668829978      0.441830009      0.433479995    
 C1  0.563679993      0.127370000      0.393400013    
 N1  0.518729985      0.128049999      0.435820013    
 N1  0.609319985      0.128049999      0.435820013    
 C2  0.537020028      0.129219994      0.509320021    
 C2  0.592199981      0.129219994      0.509320021    
 C3  0.563019991      0.126029998      0.309619993    
 H1  0.620310009      0.129969999      0.556230009    
 H1  0.509660006      0.129969999      0.556230009    
 H2  0.538010001       7.60200024E-02  0.289429992    
 H2  0.537999988      0.150519997      0.287669986    
 H2  0.612519979      0.150519997      0.287669986    
 C1  0.390359998       0.00000000       0.00000000    
 N1  0.338649988      0.956969976      0.963819981    
 N1  0.381680012       4.30300012E-02   3.61800008E-02
 C2  0.294739991      0.973789990      0.977959991    
 C2  0.320950001       2.62100007E-02   2.20400002E-02
 H1  0.433780015       0.00000000       0.00000000    
 H2  0.300729990       5.25600016E-02   4.41900007E-02
 H2  0.248170003      0.947440028      0.955810010    
 C1  0.633319974       1.71600003E-02  0.530229986    
 N1  0.661350012       4.30300012E-02  0.463820010    
 N1  0.618319988      0.956969976      0.536180019    
 C2  0.664229989      0.996469975      0.425579995    
 C2  0.638019979      0.944050014      0.469660014    
 H1  0.623950005       4.18399982E-02  0.573679984    
 H2  0.632049978      0.898710012      0.458380014    
 H2  0.684610009       3.83999990E-03  0.370000005    
 C1   0.00000000      0.390359998       0.00000000    
 N1   4.30300012E-02  0.381680012      0.963819981    
 N1  0.956969976      0.338649988       3.61800008E-02
 C2   2.62100007E-02  0.320950001      0.977959991    
 C2  0.973789990      0.294739991       2.20400002E-02
 H1   0.00000000      0.433780015       0.00000000    
 H2  0.947440028      0.248170003       4.41900007E-02
 H2   5.25600016E-02  0.300729990      0.955810010    
 C1  0.618640006      0.608730018      0.982550025    
 N1  0.618319988      0.661350012      0.963819981    
 N1  0.661350012      0.618319988       3.61800008E-02
 C2  0.663450003      0.706839979       8.20999965E-03
 C2  0.689660013      0.680630028       5.22800013E-02
 H1  0.588159978      0.564010024      0.957459986    
 H2  0.726279974      0.701849997       9.37300026E-02
 H2  0.673720002      0.754410028       5.35000023E-03
 C1  0.381359994      0.391270012      0.482549995    
 N1  0.381680012      0.338649988      0.463820010    
 N1  0.338649988      0.381680012      0.536180019    
 C2  0.336549997      0.293159992      0.508210003    
 C2  0.310339987      0.319370002      0.552280009    
 H1  0.411839992      0.435990006      0.457459986    
 H2  0.273719996      0.298150003      0.593729973    
 H2  0.326279998      0.245590001      0.505349994    
 C1   0.00000000      0.609640002      0.500000000    
 N1  0.956969976      0.618319988      0.463820010    
 N1   4.30300012E-02  0.661350012      0.536180019    
 C2  0.973789990      0.679050028      0.477959991    
 C2   2.62100007E-02  0.705259979      0.522040009    
 C3   0.00000000      0.549989998      0.500000000    
 H1   5.25600016E-02  0.751829982      0.544189990    
 H1  0.947440028      0.699270010      0.455810010    
 H2  0.971759975      0.520659983      0.549730003    
 H2  0.978720009      0.524150014      0.445380002    
 H2   4.95200008E-02  0.559539974      0.504890025    
 C1  0.608099997      0.994870007       9.03000031E-03
 N1  0.661350012       4.30300012E-02   3.61800008E-02
 N1  0.618319988      0.956969976      0.963819981    
 C2  0.707920015       3.51000018E-02   6.38000015E-03
 C2  0.681710005      0.982680023      0.962310016    
 C3  0.545419991      0.984740019       2.68799998E-02
 H1  0.703629971      0.962000012      0.930159986    
 H1  0.756190002       6.71200007E-02   1.85499992E-02
 H2  0.526939988      0.954879999       7.94600025E-02
 H2  0.548389971       3.11900005E-02   3.71700004E-02
 H2  0.512989998      0.960399985      0.977649987    
 C1  0.391900003       5.12999995E-03  0.509029984    
 N1  0.338649988      0.956969976      0.536180019    
 N1  0.381680012       4.30300012E-02  0.463820010    
 C2  0.292079985      0.964900017      0.506380022    
 C2  0.318289995       1.73199996E-02  0.462309986    
 C3  0.454580009       1.52599998E-02  0.526880026    
 H1  0.296370000       3.79999988E-02  0.430159986    
 H1  0.243809998      0.932879984      0.518549979    
 H2  0.473060012       4.51200008E-02  0.579460025    
 H2  0.451609999      0.968810022      0.537169993    
 H2  0.487010002       3.95999998E-02  0.477649987    
 C1  0.994870007      0.608099997      0.990970016    
 N1  0.956969976      0.618319988       3.61800008E-02
 N1   4.30300012E-02  0.661350012      0.963819981    
 C2  0.982680023      0.681710005       3.76899987E-02
 C2   3.51000018E-02  0.707920015      0.993619978    
 H1  0.987500012      0.562479973      0.977980018    
 H2   6.71200007E-02  0.756190002      0.981450021    
 H2  0.962000012      0.703629971       6.98399991E-02
 C1  0.390359998      0.390359998       0.00000000    
 N1  0.381680012      0.338649988       3.61800008E-02
 N1  0.338649988      0.381680012      0.963819981    
 C2  0.320950001      0.294739991       2.20400002E-02
 C2  0.294739991      0.320950001      0.977959991    
 H1  0.433780015      0.433780015       0.00000000    
 H2  0.248170003      0.300729990      0.955810010    
 H2  0.300729990      0.248170003       4.41900007E-02
 C1  0.625490010      0.611469984      0.524680018    
 N1  0.618319988      0.661350012      0.536180019    
 N1  0.661350012      0.618319988      0.463820010    
 C2  0.651579976      0.702080011      0.479270011    
 C2  0.677789986      0.675870001      0.435200006    
 H1  0.604870021      0.570699990      0.560159981    
 H2  0.706830025      0.694050014      0.385749996    
 H2  0.654269993      0.746609986      0.474130005    
 C1  0.990090013      0.381359994      0.517449975    
 N1   4.30300012E-02  0.381680012      0.536180019    
 N1  0.956969976      0.338649988      0.463820010    
 C2   4.33799997E-02  0.336549997      0.491789997    
 C2  0.990960002      0.310339987      0.447719991    
 C3  0.970520020      0.423229992      0.551919997    
 H1  0.975570023      0.273719996      0.406269997    
 H1   8.06899965E-02  0.326279998      0.494650006    
 H2  0.941070020      0.400169998      0.603779972    
 H2   1.31500000E-02  0.468470007      0.568939984    
 H2  0.942359984      0.433079988      0.509419978    
 C1  0.431160003      0.115649998      0.250000000    
 N1  0.413049996       8.07999969E-02  0.313639998    
 N1  0.413049996       8.07999969E-02  0.186360002    
 C2  0.381680012       2.03900002E-02  0.288760006    
 C2  0.381680012       2.03900002E-02  0.211239994    
 H1  0.457190007      0.165769994      0.250000000    
 H2  0.361660004      0.981850028      0.172260001    
 H2  0.361660004      0.981850028      0.327740014    
 C1  0.577170014      0.885330021      0.750000000    
 N1  0.586950004      0.919200003      0.813639998    
 N1  0.586950004      0.919200003      0.686360002    
 C2  0.603890002      0.977900028      0.788760006    
 C2  0.603890002      0.977900028      0.711239994    
 H1  0.563109994      0.836629987      0.750000000    
 H2  0.614700019       1.53599996E-02  0.672259986    
 H2  0.614700019       1.53599996E-02  0.827740014    
 C1  0.884350002      0.315510005      0.250000000    
 N1  0.919200003      0.332260013      0.313639998    
 N1  0.919200003      0.332260013      0.186360002    
 C2  0.979610026      0.361290008      0.288760006    
 C2  0.979610026      0.361290008      0.211239994    
 H1  0.834230006      0.291420013      0.250000000    
 H2   1.81499999E-02  0.379810005      0.172260001    
 H2   1.81499999E-02  0.379810005      0.327740014    
 C1  0.691839993      0.577170014      0.250000000    
 N1  0.667739987      0.586950004      0.313639998    
 N1  0.667739987      0.586950004      0.186360002    
 C2  0.625989974      0.603890002      0.288760006    
 C2  0.625989974      0.603890002      0.211239994    
 H1  0.726480007      0.563109994      0.250000000    
 H2  0.599340022      0.614700019      0.172260001    
 H2  0.599340022      0.614700019      0.327740014    
 C1  0.323989987      0.438259989      0.750000000    
 N1  0.332260013      0.413049996      0.813639998    
 N1  0.332260013      0.413049996      0.686360002    
 C2  0.346579999      0.369390011      0.788760006    
 C2  0.346579999      0.369390011      0.711239994    
 C3  0.307660013      0.488029987      0.750000000    
 H1  0.355729997      0.341520011      0.672259986    
 H1  0.355729997      0.341520011      0.827740014    
 H2  0.255230010      0.466390014      0.750000000    
 H2  0.327630013      0.517889977      0.802349985    
 H2  0.327630013      0.517889977      0.697650015    
 C1  0.110590003      0.666960001      0.750000000    
 N1   8.07999969E-02  0.667739987      0.813639998    
 N1   8.07999969E-02  0.667739987      0.686360002    
 C2   2.91600004E-02  0.669099987      0.788760006    
 C2   2.91600004E-02  0.669099987      0.711239994    
 C3  0.169450000      0.665419996      0.750000000    
 H1  0.996209979      0.669960022      0.672259986    
 H1  0.996209979      0.669960022      0.827740014    
 H2  0.210260004      0.714690030      0.750000000    
 H2  0.171560004      0.640190005      0.802349985    
 H2  0.171560004      0.640190005      0.697650015    
 C1  0.308160007      0.885330021      0.750000000    
 N1  0.332260013      0.919200003      0.686360002    
 N1  0.332260013      0.919200003      0.813639998    
 C2  0.374009997      0.977900028      0.711239994    
 C2  0.374009997      0.977900028      0.788760006    
 H1  0.273519993      0.836629987      0.750000000    
 H2  0.400660008       1.53599996E-02  0.827740014    
 H2  0.400660008       1.53599996E-02  0.672259986    
 C1  0.568840027      0.684490025      0.750000000    
 N1  0.586950004      0.667739987      0.686360002    
 N1  0.586950004      0.667739987      0.813639998    
 C2  0.618319988      0.638710022      0.711239994    
 C2  0.618319988      0.638710022      0.788760006    
 H1  0.542810023      0.708580017      0.750000000    
 H2  0.638339996      0.620190024      0.827740014    
 H2  0.638339996      0.620190024      0.672259986    
 C1  0.104889996      0.446929991      0.750000000    
 N1   8.07999969E-02  0.413049996      0.686360002    
 N1   8.07999969E-02  0.413049996      0.813639998    
 C2   3.90399992E-02  0.354360014      0.711239994    
 C2   3.90399992E-02  0.354360014      0.788760006    
 C2  0.152490005      0.513830006      0.750000000    
 H1   1.23899998E-02  0.316900015      0.827740014    
 H1   1.23899998E-02  0.316900015      0.672259986    
 H2  0.200529993      0.519119978      0.750000000    
 H2  0.146669999      0.536780000      0.697650015    
 H2  0.146669999      0.536780000      0.802349985    
 C1  0.884350002      0.568840027      0.250000000    
 N1  0.919200003      0.586950004      0.186360002    
 N1  0.919200003      0.586950004      0.313639998    
 C2  0.979610026      0.618319988      0.211239994    
 C2  0.979610026      0.618319988      0.288760006    
 H1  0.834230006      0.542810023      0.250000000    
 H2   1.81499999E-02  0.638339996      0.327740014    
 H2   1.81499999E-02  0.638339996      0.172260001    
 C1  0.438259989      0.323989987      0.250000000    
 N1  0.413049996      0.332260013      0.186360002    
 N1  0.413049996      0.332260013      0.313639998    
 C2  0.369390011      0.346579999      0.211239994    
 C2  0.369390011      0.346579999      0.288760006    
 C3  0.488029987      0.307660013      0.250000000    
 H1  0.341520011      0.355729997      0.327740014    
 H1  0.341520011      0.355729997      0.172260001    
 H2  0.466390014      0.255230010      0.250000000    
 H2  0.517889977      0.327630013      0.197650000    
 H2  0.517889977      0.327630013      0.302350014    
 C1  0.684490025      0.115649998      0.250000000    
 N1  0.667739987       8.07999969E-02  0.186360002    
 N1  0.667739987       8.07999969E-02  0.313639998    
 C2  0.638710022       2.03900002E-02  0.211239994    
 C2  0.638710022       2.03900002E-02  0.288760006    
 H1  0.708580017      0.165769994      0.250000000    
 H2  0.620190024      0.981850028      0.327740014    
 H2  0.620190024      0.981850028      0.172260001    
 C1  0.422399998      0.211199999       9.44000036E-02
 N1  0.432729989      0.261660010       5.38900010E-02
 N1  0.432729989      0.171069995       5.38900010E-02
 C2  0.450639993      0.252909988      0.983669996    
 C2  0.450639993      0.197730005      0.983669996    
 H1  0.407550007      0.203769997      0.152659997    
 H2  0.462060004      0.175699994      0.938859999    
 H2  0.462060004      0.286359996      0.938859999    
 C1  0.592859983      0.796429992      0.582690001    
 N1  0.567269981      0.738340020      0.553889990    
 N1  0.567269981      0.828930020      0.553889990    
 C2  0.522909999      0.733870029      0.503970027    
 C2  0.522909999      0.789040029      0.503970027    
 C3  0.643429995      0.821709991      0.639590025    
 H1  0.494599998      0.802630007      0.472110003    
 H1  0.494599998      0.691969991      0.472110003    
 H2  0.622590005      0.811290026      0.698480010    
 H2  0.673189998      0.799329996      0.631910026    
 H2  0.673189998      0.873849988      0.631910026    
 C1  0.779779971      0.220220000       9.52600017E-02
 N1  0.738340020      0.171069995       5.38900010E-02
 N1  0.828930020      0.261660010       5.38900010E-02
 C2  0.762719989      0.182099998      0.982190013    
 C2  0.817900002      0.237279996      0.982190013    
 H1  0.774240017      0.225759998      0.154750004    
 H2  0.849900007      0.260760009      0.936429977    
 H2  0.739239991      0.150099993      0.936429977    
 C1  0.768890023      0.537769973       7.65200034E-02
 N1  0.828930020      0.567269981       5.38900010E-02
 N1  0.738340020      0.567269981       5.38900010E-02
 C2  0.836780012      0.618369997       1.46700004E-02
 C2  0.781599998      0.618369997       1.46700004E-02
 C3  0.739759982      0.479519993      0.121210001    
 H1  0.770160019      0.650990009      0.989650011    
 H1  0.880819976      0.650990009      0.989650011    
 H2  0.719079971      0.438169986       8.14799964E-02
 H2  0.776220024      0.477910012      0.158179998    
 H2  0.701699972      0.477910012      0.158179998    
 C1  0.211199999      0.422399998      0.594399989    
 N1  0.171069995      0.432729989      0.553889990    
 N1  0.261660010      0.432729989      0.553889990    
 C2  0.197730005      0.450639993      0.483669996    
 C2  0.252909988      0.450639993      0.483669996    
 H1  0.203769997      0.407550007      0.652660012    
 H2  0.286359996      0.462060004      0.438859999    
 H2  0.175699994      0.462060004      0.438859999    
 C1  0.220220000      0.779779971      0.595260024    
 N1  0.261660010      0.828930020      0.553889990    
 N1  0.171069995      0.738340020      0.553889990    
 C2  0.237279996      0.817900002      0.482190013    
 C2  0.182099998      0.762719989      0.482190013    
 H1  0.225759998      0.774240017      0.654749990    
 H2  0.150099993      0.739239991      0.436430007    
 H2  0.260760009      0.849900007      0.436430007    
 C1  0.220220000      0.779779971      0.904739976    
 N1  0.171069995      0.738340020      0.946110010    
 N1  0.261660010      0.828930020      0.946110010    
 C2  0.182099998      0.762719989       1.78100001E-02
 C2  0.237279996      0.817900002       1.78100001E-02
 H1  0.225759998      0.774240017      0.845250010    
 H2  0.260760009      0.849900007       6.35700002E-02
 H2  0.150099993      0.739239991       6.35700002E-02
 C1  0.559560001      0.779779971      0.904739976    
 N1  0.567269981      0.828930020      0.946110010    
 N1  0.567269981      0.738340020      0.946110010    
 C2  0.580619991      0.817900002       1.78100001E-02
 C2  0.580619991      0.762719989       1.78100001E-02
 H1  0.548489988      0.774240017      0.845250010    
 H2  0.589129984      0.739239991       6.35700002E-02
 H2  0.589129984      0.849900007       6.35700002E-02
 C1  0.228200004      0.456409991      0.914969981    
 N1  0.261660010      0.432729989      0.946110010    
 N1  0.171069995      0.432729989      0.946110010    
 C2  0.223440006      0.391710013       9.00000014E-05
 C2  0.168270007      0.391710013       9.00000014E-05
 H1  0.245220006      0.490440011      0.870190024    
 H2  0.127440006      0.365530014       3.45299989E-02
 H2  0.238089994      0.365530014       3.45299989E-02
 C1  0.784309983      0.568629980      0.403719991    
 N1  0.738340020      0.567269981      0.446110010    
 N1  0.828930020      0.567269981      0.446110010    
 C2  0.754869998      0.564909995      0.519580007    
 C2  0.810039997      0.564909995      0.519580007    
 H1  0.785290003      0.570580006      0.342779994    
 H2  0.837029994      0.563399971      0.566460013    
 H2  0.726369977      0.563399971      0.566460013    
 C1  0.407139987      0.203569993      0.417309999    
 N1  0.432729989      0.171069995      0.446110010    
 N1  0.432729989      0.261660010      0.446110010    
 C2  0.477090001      0.210960001      0.496030003    
 C2  0.477090001      0.266130000      0.496030003    
 C3  0.356570005      0.178289995      0.360410005    
 H1  0.505400002      0.308030009      0.527890027    
 H1  0.505400002      0.197369993      0.527890027    
 H2  0.377409995      0.188710004      0.301519990    
 H2  0.326810002      0.126149997      0.368090004    
 H2  0.326810002      0.200670004      0.368090004    
 C1  0.766979992      0.233019993      0.433539987    
 N1  0.828930020      0.261660010      0.446110010    
 N1  0.738340020      0.171069995      0.446110010    
 C2  0.840080023      0.215100005      0.467900008    
 C2  0.784900010      0.159920007      0.467900008    
 C3  0.734089971      0.265910000      0.408710003    
 H1  0.775569975      0.113770001      0.481799990    
 H1  0.886229992      0.224429995      0.481799990    
 H2  0.718349993      0.281650007      0.460110009    
 H2  0.766650021      0.307870001      0.373510003    
 H2  0.692130029      0.233349994      0.373510003    
